Ouverture en écriture du fichier ./vola.1

<INFO> Démarrage de l'exécution.

                  -- CODE_ASTER -- VERSION : DÉVELOPPEMENT STABILISÉE (testing) --                  
                               Version 15.8.0 modifiée le 09/08/2023                                
                                     révision ff186781cc2a - branche '15.8.0'                       
                                   Copyright EDF R&D 1991 - 2024                                    
                                                                                                    
                                      Exécution du : Wed Jan 17 13:30:14 2024                       
                                          Nom de la machine : 91dcbaed2c2e                          
                                                Architecture : 64bit                                
                                            Type de processeur : x86_64                             
                                              Système d'exploitation :                              
              Linux-5.10.102.1-microsoft-standard-WSL2-x86_64-with-Ubuntu-18.04-bionic              
                                          Langue des messages : en (UTF-8)                          
                                     Version de Python : 3.6.9                                      
                                                  Version de NumPy : 1.13.3                         
                                     Parallélisme MPI : inactif                                     
                                    Parallélisme OpenMP : actif                                     
                                          Nombre de processus utilisés : 1                          
                               Version de la librairie HDF5 : 1.10.3                                
                                Version de la librairie MED : 4.1.0                                 
                               Version de la librairie MFront : 3.4.0                               
                               Version de la librairie MUMPS : 5.2.1                                
                                  Librairie PETSc : non disponible                                  
                               Version de la librairie SCOTCH : 6.0.4                               

                            Mémoire limite pour l'exécution : 2048.00 Mo                            
                                          consommée par l'initialisation : 269.13 Mo                
                                       reste pour l'allocation dynamique : 1778.87 Mo               
                         Taille limite des fichiers d'échange : 2048.00 Go                          

.. _stg1_txt125
# ----------------------------------------------------------------------------------------------
# Commande #0001 de /aster/aster/lib64/aster/code_aster/Commands/debut.py, ligne 125
DEBUT(DEBUG=_F(JEVEUX='NON',
               JXVERI='NON',
               SDVERI='NON',
               VERI_BASE_NB=125),
      IMPR_MACRO='NON',
      INFO=1,
      LANG='FR',
      MEMOIRE=_F(TAILLE_BLOC=800.0,
                 TAILLE_GROUP_ELEM=1000),
      MESURE_TEMPS=_F(MOYENNE='NON',
                      NIVE_DETAIL=1),
      RESERVE_CPU=_F(BORNE=900))

starting the execution...
Valeur initiale du temps CPU maximum =   900 secondes
  Valeur du temps CPU maximum passé aux commandes =   810 secondes
  Réserve CPU prévue = 90 secondes

Ouverture en écriture du fichier ./glob.1

Ouverture en écriture du fichier ./vola.1

Ouverture en lecture du fichier /aster/aster/lib64/aster/elem.1

Nom de la base                          :  ELEMBASE
     Créée avec la version                   :  15.08.00
     Nombre d'enregistrements utilisés       :  45
     Nombre d'enregistrements maximum        :  512
     Nombre d'enregistrements par fichier    :  512
     Longueur d'enregistrement (octets)      :  819200
     Nombre d'identificateurs utilisés       :  123
     Taille maximum du répertoire            :  300
     Pourcentage d'utilisation du répertoire :  41 %

Ouverture en lecture du fichier /aster/aster/lib64/aster/elem.1

Nom de la base                          :  ELEMBASE
     Nombre d'enregistrements utilisés       :  45
     Nombre d'enregistrements maximum        :  512
     Nombre d'enregistrements par fichier    :  512
     Longueur d'enregistrement (octets)      :  819200
     Nombre total d'accès en lecture         :  63
     Volume des accès en lecture             :         49.22 Mo.
     Nombre total d'accès en écriture        :  0
     Volume des accès en écriture            :          0.00 Mo.
     Nombre d'identificateurs utilisés       :  123
     Taille maximum du répertoire            :  300
     Pourcentage d'utilisation du répertoire :  41 %

Relecture des catalogues des éléments faite.

Fin de lecture (durée  0.024883  s.) 

# Mémoire (Mo) :   477.45 /   468.70 /   207.90 /   184.46 (VmPeak / VmSize / Optimum / Minimum)
# Fin commande #0001   user+syst:        0.03s (syst:        0.13s, elaps:        0.17s)
# ----------------------------------------------------------------------------------------------

.. _stg1_cmd0:1
# ----------------------------------------------------------------------------------------------
# Commande #0002 de fort.1, ligne 16
m_Elem = LIRE_MAILLAGE(FORMAT='ASTER',
                       INFO=1,
                       UNITE=20,
                       VERI_MAIL=_F(APLAT=0.001,
                                    VERIF='OUI'))

Vérification du maillage.


------------ MAILLAGE 00000001 - IMPRESSIONS NIVEAU  1 ------------

ME-17-JANV-2024 13:30:14                                                        

NOMBRE DE NOEUDS                        4594

NOMBRE DE MAILLES                       6184
                              QUAD4                3880
                              HEXA8                2304

NOMBRE DE GROUPES DE NOEUDS              712
                              P0_NBOT                            289
                              P0_NTOP                            289
                              P0_NUBBOT                           64
                              P0_NUBTOP                           64
                              P0_NB_001_001                        1
                              P0_NB_001_002                        1
                              P0_NB_001_003                        1
                              P0_NB_001_004                        1
                              P0_NB_001_005                        1
                              P0_NB_001_006                        1
                              P0_NB_001_007                        1
                              P0_NB_001_008                        1
                              P0_NB_002_001                        1
                              P0_NB_002_002                        1
                              P0_NB_002_003                        1
                              P0_NB_002_004                        1
                              P0_NB_002_005                        1
                              P0_NB_002_006                        1
                              P0_NB_002_007                        1
                              P0_NB_002_008                        1
                              P0_NB_003_001                        1
                              P0_NB_003_002                        1
                              P0_NB_003_003                        1
                              P0_NB_003_004                        1
                              P0_NB_003_005                        1
                              P0_NB_003_006                        1
                              P0_NB_003_007                        1
                              P0_NB_003_008                        1
                              P0_NB_004_001                        1
                              P0_NB_004_002                        1
                              P0_NB_004_003                        1
                              P0_NB_004_004                        1
                              P0_NB_004_005                        1
                              P0_NB_004_006                        1
                              P0_NB_004_007                        1
                              P0_NB_004_008                        1
                              P0_NB_005_001                        1
                              P0_NB_005_002                        1
                              P0_NB_005_003                        1
                              P0_NB_005_004                        1
                              P0_NB_005_005                        1
                              P0_NB_005_006                        1
                              P0_NB_005_007                        1
                              P0_NB_005_008                        1
                              P0_NB_006_001                        1
                              P0_NB_006_002                        1
                              P0_NB_006_003                        1
                              P0_NB_006_004                        1
                              P0_NB_006_005                        1
                              P0_NB_006_006                        1
                              P0_NB_006_007                        1
                              P0_NB_006_008                        1
                              P0_NB_007_001                        1
                              P0_NB_007_002                        1
                              P0_NB_007_003                        1
                              P0_NB_007_004                        1
                              P0_NB_007_005                        1
                              P0_NB_007_006                        1
                              P0_NB_007_007                        1
                              P0_NB_007_008                        1
                              P0_NB_008_001                        1
                              P0_NB_008_002                        1
                              P0_NB_008_003                        1
                              P0_NB_008_004                        1
                              P0_NB_008_005                        1
                              P0_NB_008_006                        1
                              P0_NB_008_007                        1
                              P0_NB_008_008                        1
                              P0_NT_001_001                        1
                              P0_NT_001_002                        1
                              P0_NT_001_003                        1
                              P0_NT_001_004                        1
                              P0_NT_001_005                        1
                              P0_NT_001_006                        1
                              P0_NT_001_007                        1
                              P0_NT_001_008                        1
                              P0_NT_002_001                        1
                              P0_NT_002_002                        1
                              P0_NT_002_003                        1
                              P0_NT_002_004                        1
                              P0_NT_002_005                        1
                              P0_NT_002_006                        1
                              P0_NT_002_007                        1
                              P0_NT_002_008                        1
                              P0_NT_003_001                        1
                              P0_NT_003_002                        1
                              P0_NT_003_003                        1
                              P0_NT_003_004                        1
                              P0_NT_003_005                        1
                              P0_NT_003_006                        1
                              P0_NT_003_007                        1
                              P0_NT_003_008                        1
                              P0_NT_004_001                        1
                              P0_NT_004_002                        1
                              P0_NT_004_003                        1
                              P0_NT_004_004                        1
                              P0_NT_004_005                        1
                              P0_NT_004_006                        1
                              P0_NT_004_007                        1
                              P0_NT_004_008                        1
                              P0_NT_005_001                        1
                              P0_NT_005_002                        1
                              P0_NT_005_003                        1
                              P0_NT_005_004                        1
                              P0_NT_005_005                        1
                              P0_NT_005_006                        1
                              P0_NT_005_007                        1
                              P0_NT_005_008                        1
                              P0_NT_006_001                        1
                              P0_NT_006_002                        1
                              P0_NT_006_003                        1
                              P0_NT_006_004                        1
                              P0_NT_006_005                        1
                              P0_NT_006_006                        1
                              P0_NT_006_007                        1
                              P0_NT_006_008                        1
                              P0_NT_007_001                        1
                              P0_NT_007_002                        1
                              P0_NT_007_003                        1
                              P0_NT_007_004                        1
                              P0_NT_007_005                        1
                              P0_NT_007_006                        1
                              P0_NT_007_007                        1
                              P0_NT_007_008                        1
                              P0_NT_008_001                        1
                              P0_NT_008_002                        1
                              P0_NT_008_003                        1
                              P0_NT_008_004                        1
                              P0_NT_008_005                        1
                              P0_NT_008_006                        1
                              P0_NT_008_007                        1
                              P0_NT_008_008                        1
                              P1_NBOT                            289
                              P1_NTOP                            289
                              P1_NUBBOT                           64
                              P1_NUBTOP                           64
                              P1_NB_001_001                        1
                              P1_NB_001_002                        1
                              P1_NB_001_003                        1
                              P1_NB_001_004                        1
                              P1_NB_001_005                        1
                              P1_NB_001_006                        1
                              P1_NB_001_007                        1
                              P1_NB_001_008                        1
                              P1_NB_002_001                        1
                              P1_NB_002_002                        1
                              P1_NB_002_003                        1
                              P1_NB_002_004                        1
                              P1_NB_002_005                        1
                              P1_NB_002_006                        1
                              P1_NB_002_007                        1
                              P1_NB_002_008                        1
                              P1_NB_003_001                        1
                              P1_NB_003_002                        1
                              P1_NB_003_003                        1
                              P1_NB_003_004                        1
                              P1_NB_003_005                        1
                              P1_NB_003_006                        1
                              P1_NB_003_007                        1
                              P1_NB_003_008                        1
                              P1_NB_004_001                        1
                              P1_NB_004_002                        1
                              P1_NB_004_003                        1
                              P1_NB_004_004                        1
                              P1_NB_004_005                        1
                              P1_NB_004_006                        1
                              P1_NB_004_007                        1
                              P1_NB_004_008                        1
                              P1_NB_005_001                        1
                              P1_NB_005_002                        1
                              P1_NB_005_003                        1
                              P1_NB_005_004                        1
                              P1_NB_005_005                        1
                              P1_NB_005_006                        1
                              P1_NB_005_007                        1
                              P1_NB_005_008                        1
                              P1_NB_006_001                        1
                              P1_NB_006_002                        1
                              P1_NB_006_003                        1
                              P1_NB_006_004                        1
                              P1_NB_006_005                        1
                              P1_NB_006_006                        1
                              P1_NB_006_007                        1
                              P1_NB_006_008                        1
                              P1_NB_007_001                        1
                              P1_NB_007_002                        1
                              P1_NB_007_003                        1
                              P1_NB_007_004                        1
                              P1_NB_007_005                        1
                              P1_NB_007_006                        1
                              P1_NB_007_007                        1
                              P1_NB_007_008                        1
                              P1_NB_008_001                        1
                              P1_NB_008_002                        1
                              P1_NB_008_003                        1
                              P1_NB_008_004                        1
                              P1_NB_008_005                        1
                              P1_NB_008_006                        1
                              P1_NB_008_007                        1
                              P1_NB_008_008                        1
                              P1_NT_001_001                        1
                              P1_NT_001_002                        1
                              P1_NT_001_003                        1
                              P1_NT_001_004                        1
                              P1_NT_001_005                        1
                              P1_NT_001_006                        1
                              P1_NT_001_007                        1
                              P1_NT_001_008                        1
                              P1_NT_002_001                        1
                              P1_NT_002_002                        1
                              P1_NT_002_003                        1
                              P1_NT_002_004                        1
                              P1_NT_002_005                        1
                              P1_NT_002_006                        1
                              P1_NT_002_007                        1
                              P1_NT_002_008                        1
                              P1_NT_003_001                        1
                              P1_NT_003_002                        1
                              P1_NT_003_003                        1
                              P1_NT_003_004                        1
                              P1_NT_003_005                        1
                              P1_NT_003_006                        1
                              P1_NT_003_007                        1
                              P1_NT_003_008                        1
                              P1_NT_004_001                        1
                              P1_NT_004_002                        1
                              P1_NT_004_003                        1
                              P1_NT_004_004                        1
                              P1_NT_004_005                        1
                              P1_NT_004_006                        1
                              P1_NT_004_007                        1
                              P1_NT_004_008                        1
                              P1_NT_005_001                        1
                              P1_NT_005_002                        1
                              P1_NT_005_003                        1
                              P1_NT_005_004                        1
                              P1_NT_005_005                        1
                              P1_NT_005_006                        1
                              P1_NT_005_007                        1
                              P1_NT_005_008                        1
                              P1_NT_006_001                        1
                              P1_NT_006_002                        1
                              P1_NT_006_003                        1
                              P1_NT_006_004                        1
                              P1_NT_006_005                        1
                              P1_NT_006_006                        1
                              P1_NT_006_007                        1
                              P1_NT_006_008                        1
                              P1_NT_007_001                        1
                              P1_NT_007_002                        1
                              P1_NT_007_003                        1
                              P1_NT_007_004                        1
                              P1_NT_007_005                        1
                              P1_NT_007_006                        1
                              P1_NT_007_007                        1
                              P1_NT_007_008                        1
                              P1_NT_008_001                        1
                              P1_NT_008_002                        1
                              P1_NT_008_003                        1
                              P1_NT_008_004                        1
                              P1_NT_008_005                        1
                              P1_NT_008_006                        1
                              P1_NT_008_007                        1
                              P1_NT_008_008                        1
                              P2_NBOT                            289
                              P2_NTOP                            289
                              P2_NUBBOT                           64
                              P2_NUBTOP                           64
                              P2_NB_001_001                        1
                              P2_NB_001_002                        1
                              P2_NB_001_003                        1
                              P2_NB_001_004                        1
                              P2_NB_001_005                        1
                              P2_NB_001_006                        1
                              P2_NB_001_007                        1
                              P2_NB_001_008                        1
                              P2_NB_002_001                        1
                              P2_NB_002_002                        1
                              P2_NB_002_003                        1
                              P2_NB_002_004                        1
                              P2_NB_002_005                        1
                              P2_NB_002_006                        1
                              P2_NB_002_007                        1
                              P2_NB_002_008                        1
                              P2_NB_003_001                        1
                              P2_NB_003_002                        1
                              P2_NB_003_003                        1
                              P2_NB_003_004                        1
                              P2_NB_003_005                        1
                              P2_NB_003_006                        1
                              P2_NB_003_007                        1
                              P2_NB_003_008                        1
                              P2_NB_004_001                        1
                              P2_NB_004_002                        1
                              P2_NB_004_003                        1
                              P2_NB_004_004                        1
                              P2_NB_004_005                        1
                              P2_NB_004_006                        1
                              P2_NB_004_007                        1
                              P2_NB_004_008                        1
                              P2_NB_005_001                        1
                              P2_NB_005_002                        1
                              P2_NB_005_003                        1
                              P2_NB_005_004                        1
                              P2_NB_005_005                        1
                              P2_NB_005_006                        1
                              P2_NB_005_007                        1
                              P2_NB_005_008                        1
                              P2_NB_006_001                        1
                              P2_NB_006_002                        1
                              P2_NB_006_003                        1
                              P2_NB_006_004                        1
                              P2_NB_006_005                        1
                              P2_NB_006_006                        1
                              P2_NB_006_007                        1
                              P2_NB_006_008                        1
                              P2_NB_007_001                        1
                              P2_NB_007_002                        1
                              P2_NB_007_003                        1
                              P2_NB_007_004                        1
                              P2_NB_007_005                        1
                              P2_NB_007_006                        1
                              P2_NB_007_007                        1
                              P2_NB_007_008                        1
                              P2_NB_008_001                        1
                              P2_NB_008_002                        1
                              P2_NB_008_003                        1
                              P2_NB_008_004                        1
                              P2_NB_008_005                        1
                              P2_NB_008_006                        1
                              P2_NB_008_007                        1
                              P2_NB_008_008                        1
                              P2_NT_001_001                        1
                              P2_NT_001_002                        1
                              P2_NT_001_003                        1
                              P2_NT_001_004                        1
                              P2_NT_001_005                        1
                              P2_NT_001_006                        1
                              P2_NT_001_007                        1
                              P2_NT_001_008                        1
                              P2_NT_002_001                        1
                              P2_NT_002_002                        1
                              P2_NT_002_003                        1
                              P2_NT_002_004                        1
                              P2_NT_002_005                        1
                              P2_NT_002_006                        1
                              P2_NT_002_007                        1
                              P2_NT_002_008                        1
                              P2_NT_003_001                        1
                              P2_NT_003_002                        1
                              P2_NT_003_003                        1
                              P2_NT_003_004                        1
                              P2_NT_003_005                        1
                              P2_NT_003_006                        1
                              P2_NT_003_007                        1
                              P2_NT_003_008                        1
                              P2_NT_004_001                        1
                              P2_NT_004_002                        1
                              P2_NT_004_003                        1
                              P2_NT_004_004                        1
                              P2_NT_004_005                        1
                              P2_NT_004_006                        1
                              P2_NT_004_007                        1
                              P2_NT_004_008                        1
                              P2_NT_005_001                        1
                              P2_NT_005_002                        1
                              P2_NT_005_003                        1
                              P2_NT_005_004                        1
                              P2_NT_005_005                        1
                              P2_NT_005_006                        1
                              P2_NT_005_007                        1
                              P2_NT_005_008                        1
                              P2_NT_006_001                        1
                              P2_NT_006_002                        1
                              P2_NT_006_003                        1
                              P2_NT_006_004                        1
                              P2_NT_006_005                        1
                              P2_NT_006_006                        1
                              P2_NT_006_007                        1
                              P2_NT_006_008                        1
                              P2_NT_007_001                        1
                              P2_NT_007_002                        1
                              P2_NT_007_003                        1
                              P2_NT_007_004                        1
                              P2_NT_007_005                        1
                              P2_NT_007_006                        1
                              P2_NT_007_007                        1
                              P2_NT_007_008                        1
                              P2_NT_008_001                        1
                              P2_NT_008_002                        1
                              P2_NT_008_003                        1
                              P2_NT_008_004                        1
                              P2_NT_008_005                        1
                              P2_NT_008_006                        1
                              P2_NT_008_007                        1
                              P2_NT_008_008                        1
                              P3_NBOT                             45
                              P3_NTOP                             45
                              P3_NUBBOT                            8
                              P3_NUBTOP                            8
                              P3_NB_001_001                        1
                              P3_NB_001_002                        1
                              P3_NB_002_001                        1
                              P3_NB_002_002                        1
                              P3_NB_003_001                        1
                              P3_NB_003_002                        1
                              P3_NB_004_001                        1
                              P3_NB_004_002                        1
                              P3_NT_001_001                        1
                              P3_NT_001_002                        1
                              P3_NT_002_001                        1
                              P3_NT_002_002                        1
                              P3_NT_003_001                        1
                              P3_NT_003_002                        1
                              P3_NT_004_001                        1
                              P3_NT_004_002                        1
                              P4_NBOT                             45
                              P4_NTOP                             45
                              P4_NUBBOT                            8
                              P4_NUBTOP                            8
                              P4_NB_001_001                        1
                              P4_NB_001_002                        1
                              P4_NB_002_001                        1
                              P4_NB_002_002                        1
                              P4_NB_003_001                        1
                              P4_NB_003_002                        1
                              P4_NB_004_001                        1
                              P4_NB_004_002                        1
                              P4_NT_001_001                        1
                              P4_NT_001_002                        1
                              P4_NT_002_001                        1
                              P4_NT_002_002                        1
                              P4_NT_003_001                        1
                              P4_NT_003_002                        1
                              P4_NT_004_001                        1
                              P4_NT_004_002                        1
                              P5_NBOT                             45
                              P5_NTOP                             45
                              P5_NUBBOT                            8
                              P5_NUBTOP                            8
                              P5_NB_001_001                        1
                              P5_NB_001_002                        1
                              P5_NB_002_001                        1
                              P5_NB_002_002                        1
                              P5_NB_003_001                        1
                              P5_NB_003_002                        1
                              P5_NB_004_001                        1
                              P5_NB_004_002                        1
                              P5_NT_001_001                        1
                              P5_NT_001_002                        1
                              P5_NT_002_001                        1
                              P5_NT_002_002                        1
                              P5_NT_003_001                        1
                              P5_NT_003_002                        1
                              P5_NT_004_001                        1
                              P5_NT_004_002                        1
                              P6_NBOT                             45
                              P6_NTOP                             45
                              P6_NUBBOT                            8
                              P6_NUBTOP                            8
                              P6_NB_001_001                        1
                              P6_NB_001_002                        1
                              P6_NB_002_001                        1
                              P6_NB_002_002                        1
                              P6_NB_003_001                        1
                              P6_NB_003_002                        1
                              P6_NB_004_001                        1
                              P6_NB_004_002                        1
                              P6_NT_001_001                        1
                              P6_NT_001_002                        1
                              P6_NT_002_001                        1
                              P6_NT_002_002                        1
                              P6_NT_003_001                        1
                              P6_NT_003_002                        1
                              P6_NT_004_001                        1
                              P6_NT_004_002                        1
                              P7_NBOT                             45
                              P7_NTOP                             45
                              P7_NUBBOT                            8
                              P7_NUBTOP                            8
                              P7_NB_001_001                        1
                              P7_NB_001_002                        1
                              P7_NB_002_001                        1
                              P7_NB_002_002                        1
                              P7_NB_003_001                        1
                              P7_NB_003_002                        1
                              P7_NB_004_001                        1
                              P7_NB_004_002                        1
                              P7_NT_001_001                        1
                              P7_NT_001_002                        1
                              P7_NT_002_001                        1
                              P7_NT_002_002                        1
                              P7_NT_003_001                        1
                              P7_NT_003_002                        1
                              P7_NT_004_001                        1
                              P7_NT_004_002                        1
                              P8_NBOT                             45
                              P8_NTOP                             45
                              P8_NUBBOT                            8
                              P8_NUBTOP                            8
                              P8_NB_001_001                        1
                              P8_NB_001_002                        1
                              P8_NB_002_001                        1
                              P8_NB_002_002                        1
                              P8_NB_003_001                        1
                              P8_NB_003_002                        1
                              P8_NB_004_001                        1
                              P8_NB_004_002                        1
                              P8_NT_001_001                        1
                              P8_NT_001_002                        1
                              P8_NT_002_001                        1
                              P8_NT_002_002                        1
                              P8_NT_003_001                        1
                              P8_NT_003_002                        1
                              P8_NT_004_001                        1
                              P8_NT_004_002                        1
                              P9_NBOT                             45
                              P9_NTOP                             45
                              P9_NUBBOT                            8
                              P9_NUBTOP                            8
                              P9_NB_001_001                        1
                              P9_NB_001_002                        1
                              P9_NB_002_001                        1
                              P9_NB_002_002                        1
                              P9_NB_003_001                        1
                              P9_NB_003_002                        1
                              P9_NB_004_001                        1
                              P9_NB_004_002                        1
                              P9_NT_001_001                        1
                              P9_NT_001_002                        1
                              P9_NT_002_001                        1
                              P9_NT_002_002                        1
                              P9_NT_003_001                        1
                              P9_NT_003_002                        1
                              P9_NT_004_001                        1
                              P9_NT_004_002                        1
                              P10_NBOT                            45
                              P10_NTOP                            45
                              P10_NUBBOT                           8
                              P10_NUBTOP                           8
                              P10_NB_001_001                       1
                              P10_NB_001_002                       1
                              P10_NB_002_001                       1
                              P10_NB_002_002                       1
                              P10_NB_003_001                       1
                              P10_NB_003_002                       1
                              P10_NB_004_001                       1
                              P10_NB_004_002                       1
                              P10_NT_001_001                       1
                              P10_NT_001_002                       1
                              P10_NT_002_001                       1
                              P10_NT_002_002                       1
                              P10_NT_003_001                       1
                              P10_NT_003_002                       1
                              P10_NT_004_001                       1
                              P10_NT_004_002                       1
                              P11_NBOT                            45
                              P11_NTOP                            45
                              P11_NUBBOT                           8
                              P11_NUBTOP                           8
                              P11_NB_001_001                       1
                              P11_NB_001_002                       1
                              P11_NB_002_001                       1
                              P11_NB_002_002                       1
                              P11_NB_003_001                       1
                              P11_NB_003_002                       1
                              P11_NB_004_001                       1
                              P11_NB_004_002                       1
                              P11_NT_001_001                       1
                              P11_NT_001_002                       1
                              P11_NT_002_001                       1
                              P11_NT_002_002                       1
                              P11_NT_003_001                       1
                              P11_NT_003_002                       1
                              P11_NT_004_001                       1
                              P11_NT_004_002                       1
                              P12_NBOT                            45
                              P12_NTOP                            45
                              P12_NUBBOT                           8
                              P12_NUBTOP                           8
                              P12_NB_001_001                       1
                              P12_NB_001_002                       1
                              P12_NB_002_001                       1
                              P12_NB_002_002                       1
                              P12_NB_003_001                       1
                              P12_NB_003_002                       1
                              P12_NB_004_001                       1
                              P12_NB_004_002                       1
                              P12_NT_001_001                       1
                              P12_NT_001_002                       1
                              P12_NT_002_001                       1
                              P12_NT_002_002                       1
                              P12_NT_003_001                       1
                              P12_NT_003_002                       1
                              P12_NT_004_001                       1
                              P12_NT_004_002                       1
                              P13_NBOT                            45
                              P13_NTOP                            45
                              P13_NUBBOT                           8
                              P13_NUBTOP                           8
                              P13_NB_001_001                       1
                              P13_NB_001_002                       1
                              P13_NB_002_001                       1
                              P13_NB_002_002                       1
                              P13_NB_003_001                       1
                              P13_NB_003_002                       1
                              P13_NB_004_001                       1
                              P13_NB_004_002                       1
                              P13_NT_001_001                       1
                              P13_NT_001_002                       1
                              P13_NT_002_001                       1
                              P13_NT_002_002                       1
                              P13_NT_003_001                       1
                              P13_NT_003_002                       1
                              P13_NT_004_001                       1
                              P13_NT_004_002                       1
                              P14_NBOT                            45
                              P14_NTOP                            45
                              P14_NUBBOT                           8
                              P14_NUBTOP                           8
                              P14_NB_001_001                       1
                              P14_NB_001_002                       1
                              P14_NB_002_001                       1
                              P14_NB_002_002                       1
                              P14_NB_003_001                       1
                              P14_NB_003_002                       1
                              P14_NB_004_001                       1
                              P14_NB_004_002                       1
                              P14_NT_001_001                       1
                              P14_NT_001_002                       1
                              P14_NT_002_001                       1
                              P14_NT_002_002                       1
                              P14_NT_003_001                       1
                              P14_NT_003_002                       1
                              P14_NT_004_001                       1
                              P14_NT_004_002                       1
                              P15_NBOT                            25
                              P15_NTOP                            25
                              P15_NUBBOT                           4
                              P15_NUBTOP                           4
                              P15_NB_001_001                       1
                              P15_NB_001_002                       1
                              P15_NB_002_001                       1
                              P15_NB_002_002                       1
                              P15_NT_001_001                       1
                              P15_NT_001_002                       1
                              P15_NT_002_001                       1
                              P15_NT_002_002                       1
                              P16_NBOT                            65
                              P16_NTOP                            65
                              P16_NUBBOT                          12
                              P16_NUBTOP                          12
                              P16_NB_001_001                       1
                              P16_NB_001_002                       1
                              P16_NB_002_001                       1
                              P16_NB_002_002                       1
                              P16_NB_003_001                       1
                              P16_NB_003_002                       1
                              P16_NB_004_001                       1
                              P16_NB_004_002                       1
                              P16_NB_005_001                       1
                              P16_NB_005_002                       1
                              P16_NB_006_001                       1
                              P16_NB_006_002                       1
                              P16_NT_001_001                       1
                              P16_NT_001_002                       1
                              P16_NT_002_001                       1
                              P16_NT_002_002                       1
                              P16_NT_003_001                       1
                              P16_NT_003_002                       1
                              P16_NT_004_001                       1
                              P16_NT_004_002                       1
                              P16_NT_005_001                       1
                              P16_NT_005_002                       1
                              P16_NT_006_001                       1
                              P16_NT_006_002                       1
                              P17_NBOT                            85
                              P17_NTOP                            85
                              P17_NUBBOT                          16
                              P17_NUBTOP                          16
                              P17_NB_001_001                       1
                              P17_NB_001_002                       1
                              P17_NB_002_001                       1
                              P17_NB_002_002                       1
                              P17_NB_003_001                       1
                              P17_NB_003_002                       1
                              P17_NB_004_001                       1
                              P17_NB_004_002                       1
                              P17_NB_005_001                       1
                              P17_NB_005_002                       1
                              P17_NB_006_001                       1
                              P17_NB_006_002                       1
                              P17_NB_007_001                       1
                              P17_NB_007_002                       1
                              P17_NB_008_001                       1
                              P17_NB_008_002                       1
                              P17_NT_001_001                       1
                              P17_NT_001_002                       1
                              P17_NT_002_001                       1
                              P17_NT_002_002                       1
                              P17_NT_003_001                       1
                              P17_NT_003_002                       1
                              P17_NT_004_001                       1
                              P17_NT_004_002                       1
                              P17_NT_005_001                       1
                              P17_NT_005_002                       1
                              P17_NT_006_001                       1
                              P17_NT_006_002                       1
                              P17_NT_007_001                       1
                              P17_NT_007_002                       1
                              P17_NT_008_001                       1
                              P17_NT_008_002                       1

NOMBRE DE GROUPES DE MAILLES             126
                              Vpart0                             256
                              Vpart1                             256
                              Vpart2                             256
                              Vpart3                              96
                              Vpart4                              96
                              Vpart5                              96
                              Vpart6                              96
                              Vpart7                              96
                              Vpart8                              96
                              Vpart9                              96
                              Vpart10                             96
                              Vpart11                             96
                              Vpart12                             96
                              Vpart13                             96
                              Vpart14                             96
                              Vpart15                             48
                              Vpart16                            144
                              Vpart17                            192
                              SURF_P0_FBOT                       256
                              SURF_P1_FBOT                       256
                              SURF_P2_FBOT                       256
                              SURF_P3_FBOT                        32
                              SURF_P4_FBOT                        32
                              SURF_P5_FBOT                        32
                              SURF_P6_FBOT                        32
                              SURF_P7_FBOT                        32
                              SURF_P8_FBOT                        32
                              SURF_P9_FBOT                        32
                              SURF_P10_FBOT                       32
                              SURF_P11_FBOT                       32
                              SURF_P12_FBOT                       32
                              SURF_P13_FBOT                       32
                              SURF_P14_FBOT                       32
                              SURF_P15_FBOT                       16
                              SURF_P16_FBOT                       48
                              SURF_P17_FBOT                       64
                              SURF_P0_FTOP                       256
                              SURF_P1_FTOP                       256
                              SURF_P2_FTOP                       256
                              SURF_P3_FTOP                        32
                              SURF_P4_FTOP                        32
                              SURF_P5_FTOP                        32
                              SURF_P6_FTOP                        32
                              SURF_P7_FTOP                        32
                              SURF_P8_FTOP                        32
                              SURF_P9_FTOP                        32
                              SURF_P10_FTOP                       32
                              SURF_P11_FTOP                       32
                              SURF_P12_FTOP                       32
                              SURF_P13_FTOP                       32
                              SURF_P14_FTOP                       32
                              SURF_P15_FTOP                       16
                              SURF_P16_FTOP                       48
                              SURF_P17_FTOP                       64
                              SURF_P0_FLEFT                       16
                              SURF_P1_FLEFT                       16
                              SURF_P2_FLEFT                       16
                              SURF_P3_FLEFT                       12
                              SURF_P4_FLEFT                       12
                              SURF_P5_FLEFT                       12
                              SURF_P6_FLEFT                       12
                              SURF_P7_FLEFT                       12
                              SURF_P8_FLEFT                       12
                              SURF_P9_FLEFT                       12
                              SURF_P10_FLEFT                      12
                              SURF_P11_FLEFT                      12
                              SURF_P12_FLEFT                      12
                              SURF_P13_FLEFT                      12
                              SURF_P14_FLEFT                      12
                              SURF_P15_FLEFT                      12
                              SURF_P16_FLEFT                      12
                              SURF_P17_FLEFT                      12
                              SURF_P0_FRIGHT                      16
                              SURF_P1_FRIGHT                      16
                              SURF_P2_FRIGHT                      16
                              SURF_P3_FRIGHT                      12
                              SURF_P4_FRIGHT                      12
                              SURF_P5_FRIGHT                      12
                              SURF_P6_FRIGHT                      12
                              SURF_P7_FRIGHT                      12
                              SURF_P8_FRIGHT                      12
                              SURF_P9_FRIGHT                      12
                              SURF_P10_FRIGHT                     12
                              SURF_P11_FRIGHT                     12
                              SURF_P12_FRIGHT                     12
                              SURF_P13_FRIGHT                     12
                              SURF_P14_FRIGHT                     12
                              SURF_P15_FRIGHT                     12
                              SURF_P16_FRIGHT                     12
                              SURF_P17_FRIGHT                     12
                              SURF_P0_FFRONT                      16
                              SURF_P1_FFRONT                      16
                              SURF_P2_FFRONT                      16
                              SURF_P3_FFRONT                      24
                              SURF_P4_FFRONT                      24
                              SURF_P5_FFRONT                      24
                              SURF_P6_FFRONT                      24
                              SURF_P7_FFRONT                      24
                              SURF_P8_FFRONT                      24
                              SURF_P9_FFRONT                      24
                              SURF_P10_FFRONT                     24
                              SURF_P11_FFRONT                     24
                              SURF_P12_FFRONT                     24
                              SURF_P13_FFRONT                     24
                              SURF_P14_FFRONT                     24
                              SURF_P15_FFRONT                     12
                              SURF_P16_FFRONT                     36
                              SURF_P17_FFRONT                     48
                              SURF_P0_FBACK                       16
                              SURF_P1_FBACK                       16
                              SURF_P2_FBACK                       16
                              SURF_P3_FBACK                       24
                              SURF_P4_FBACK                       24
                              SURF_P5_FBACK                       24
                              SURF_P6_FBACK                       24
                              SURF_P7_FBACK                       24
                              SURF_P8_FBACK                       24
                              SURF_P9_FBACK                       24
                              SURF_P10_FBACK                      24
                              SURF_P11_FBACK                      24
                              SURF_P12_FBACK                      24
                              SURF_P13_FBACK                      24
                              SURF_P14_FBACK                      24
                              SURF_P15_FBACK                      12
                              SURF_P16_FBACK                      36
                              SURF_P17_FBACK                      48

--------------------------------------------------------------------------------

# Résultat commande #0002 (LIRE_MAILLAGE): m_Elem ('<00000001>') de type <Mesh>
# Mémoire (Mo) :   477.45 /   473.83 /   207.90 /   184.46 (VmPeak / VmSize / Optimum / Minimum)
# Fin commande #0002   user+syst:        0.11s (syst:        0.03s, elaps:        0.13s)
# ----------------------------------------------------------------------------------------------

.. _stg1_txt18
# ----------------------------------------------------------------------------------------------
# Commande #0003 de fort.1, ligne 18
IMPR_RESU(FORMAT='MED',
          INFO=1,
          RESU=_F(IMPR_NOM_VARI='OUI',
                  INFO_MAILLAGE='NON',
                  MAILLAGE=m_Elem),
          UNITE=21,
          VERSION_MED='3.3.1')

Création du fichier au format MED 3.3.1.

# Mémoire (Mo) :   483.97 /   483.19 /   207.90 /   184.46 (VmPeak / VmSize / Optimum / Minimum)
# Fin commande #0003   user+syst:        0.09s (syst:        0.06s, elaps:        0.15s)
# ----------------------------------------------------------------------------------------------

.. _stg1_cmd3:1
# ----------------------------------------------------------------------------------------------
# Commande #0004 de fort.1, ligne 24
model = AFFE_MODELE(AFFE=_F(MODELISATION='3D',
                            PHENOMENE='MECANIQUE',
                            TOUT='OUI'),
                    DISTRIBUTION=_F(METHODE='SOUS_DOMAINE',
                                    PARTITIONNEUR='METIS'),
                    INFO=1,
                    MAILLAGE=m_Elem,
                    VERI_JACOBIEN='OUI',
                    VERI_NORM_IFS='OUI')

Sur les 6184 mailles du maillage 00000001, on a demandé l'affectation de 6184, on a pu en affecter
6184.
Modélisation     Formulation      Type maille  Élément fini     Nombre
_                _                QUAD4        MECA_FACE4       3880
3D               _                HEXA8        MECA_HEXA8       2304
#2      Calculs elementaires et assemblages               CPU (USER+SYST/SYST/ELAPS):      0.00      0.00      0.00
# Résultat commande #0004 (AFFE_MODELE): model ('<00000002>') de type <Model>
# Dépend de :
# - m_Elem ('<00000001>') de type <Mesh>
# Mémoire (Mo) :   516.41 /   516.27 /   207.90 /   197.82 (VmPeak / VmSize / Optimum / Minimum)
# Fin commande #0004   user+syst:        0.02s (syst:        0.00s, elaps:        0.02s)
# ----------------------------------------------------------------------------------------------

.. _stg1_cmd4:1
# ----------------------------------------------------------------------------------------------
# Commande #0005 de fort.1, ligne 30
mater = DEFI_MATERIAU(ELAS=_F(COEF_AMOR=1.0,
                              E=2300.0,
                              NU=0.3,
                              RHO=6.239999999999999e-10),
                      INFO=1)

# Résultat commande #0005 (DEFI_MATERIAU): mater ('<00000003>') de type <Material>
# Mémoire (Mo) :   516.41 /   516.27 /   207.90 /   197.82 (VmPeak / VmSize / Optimum / Minimum)
# Fin commande #0005   user+syst:        0.00s (syst:        0.00s, elaps:        0.01s)
# ----------------------------------------------------------------------------------------------

.. _stg1_cmd5:1
# ----------------------------------------------------------------------------------------------
# Commande #0006 de fort.1, ligne 35
materfl = AFFE_MATERIAU(AFFE=_F(MATER=mater,
                                TOUT='OUI'),
                        INFO=1,
                        MODELE=model)

# Résultat commande #0006 (AFFE_MATERIAU): materfl ('<00000004>') de type <MaterialField>
# Dépend de :
# - mater ('<00000003>') de type <Material>
# - model ('<00000002>') de type <Model>
# Mémoire (Mo) :   516.41 /   516.27 /   207.90 /   197.82 (VmPeak / VmSize / Optimum / Minimum)
# Fin commande #0006   user+syst:        0.01s (syst:        0.00s, elaps:        0.00s)
# ----------------------------------------------------------------------------------------------

.. _stg1_cmd6:1
# ----------------------------------------------------------------------------------------------
# Commande #0007 de fort.1, ligne 42
t_step = DEFI_LIST_REEL(DEBUT=0.0,
                        INFO=1,
                        INTERVALLE=_F(JUSQU_A=1.0,
                                      NOMBRE=1))

# Résultat commande #0007 (DEFI_LIST_REEL): t_step ('<00000005>') de type <ListOfFloats>
# Mémoire (Mo) :   516.41 /   516.27 /   207.90 /   197.82 (VmPeak / VmSize / Optimum / Minimum)
# Fin commande #0007   user+syst:        0.00s (syst:        0.00s, elaps:        0.00s)
# ----------------------------------------------------------------------------------------------

.. _stg1_cmd7:1
# ----------------------------------------------------------------------------------------------
# Commande #0008 de fort.1, ligne 49
t_stepa = DEFI_LIST_INST(ADAPTATION=_F(CRIT_COMP='LE',
                                       EVENEMENT='SEUIL',
                                       MODE_CALCUL_TPLUS='FIXE',
                                       NB_INCR_SEUIL=2,
                                       NOM_PARA='NB_ITER_NEWTON',
                                       PCENT_AUGM=100.0),
                         DEFI_LIST=_F(LIST_INST=t_step,
                                      NB_PAS_MAXI=1000000,
                                      PAS_MINI=0.001),
                         ECHEC=_F(ACTION='DECOUPE',
                                  EVENEMENT='ERREUR',
                                  SUBD_METHODE='MANUEL',
                                  SUBD_NIVEAU=3,
                                  SUBD_PAS=4,
                                  SUBD_PAS_MINI=0.0),
                         INFO=1,
                         METHODE='AUTO')

Gestion automatique de la liste d'instants.
Paramètres de la gestion automatique de la liste d'instants.
Pas minimum:         1E-12
Pas maximum:             1
Nombre de pas maximum: 1000000

La liste d'instants contient 2 pas de temps et le pas de temps minimum vaut             1.
Il y a 1 événements.
L'événement 1 est pour capturer les erreurs.
Si cet événement se déclenche, on découpe le pas de temps.
La découpe du pas de temps est manuel.
On découpe le pas de temps en 4 incréments jusqu'à ce que le niveau atteigne 3.
Il y a 1 schémas d'adaptations du pas de temps.
Le schéma d'adaptation 1 du pas de temps se déclenche pour un seuil donné.
Le seuil est franchi quand, 2 fois de suite, on fait exactement ou moins de 0 itérations de Newton.
Le mode de calcul de l'instant suivant est fixe.
Le pas de temps suivant sera modifié de 100.00 %.
# Résultat commande #0008 (DEFI_LIST_INST): t_stepa ('<00000006>') de type <TimeStepper>
# Dépend de :
# - t_step ('<00000005>') de type <ListOfFloats>
# Mémoire (Mo) :   516.41 /   516.27 /   207.90 /   197.82 (VmPeak / VmSize / Optimum / Minimum)
# Fin commande #0008   user+syst:        0.01s (syst:        0.00s, elaps:        0.01s)
# ----------------------------------------------------------------------------------------------

.. _stg1_cmd8:1
# ----------------------------------------------------------------------------------------------
# Commande #0009 de fort.1, ligne 63
bc_kin = AFFE_CHAR_MECA(DDL_IMPO=_F(DX=0.0,
                                    DY=0.0,
                                    DZ=0.0,
                                    GROUP_NO=('P0_NBOT', 'P1_NBOT', 'P2_NBOT')),
                        DOUBLE_LAGRANGE='OUI',
                        INFO=1,
                        MODELE=model,
                        VERI_NORM='OUI')

# Résultat commande #0009 (AFFE_CHAR_MECA): bc_kin ('<00000007>') de type <MechanicalLoadReal>
# Mémoire (Mo) :   517.62 /   517.62 /   207.90 /   197.82 (VmPeak / VmSize / Optimum / Minimum)
# Fin commande #0009   user+syst:        0.02s (syst:        0.00s, elaps:        0.02s)
# ----------------------------------------------------------------------------------------------

.. _stg1_cmd11:1
# ----------------------------------------------------------------------------------------------
# Commande #0010 de fort.1, ligne 1390
lias = AFFE_CHAR_MECA(DOUBLE_LAGRANGE='OUI',
                      INFO=1,
                      LIAISON_DDL=(_F(COEF_IMPO=0.0,
                                      COEF_MULT=(-1.0, 1.0),
                                      DDL=('DX', 'DX'),
                                      GROUP_NO=('P0_NT_001_004', 'P4_NB_003_001')),
                                   _F(COEF_IMPO=0.0,
                                      COEF_MULT=(-1.0, 1.0),
                                      DDL=('DY', 'DY'),
                                      GROUP_NO=('P0_NT_001_004', 'P4_NB_003_001')),
                                   _F(COEF_IMPO=0.0,
                                      COEF_MULT=(-1.0, 1.0),
                                      DDL=('DZ', 'DZ'),
                                      GROUP_NO=('P0_NT_001_004', 'P4_NB_003_001')),
                                   _F(COEF_IMPO=0.0,
                                      COEF_MULT=(-1.0, 1.0),
                                      DDL=('DX', 'DX'),
                                      GROUP_NO=('P0_NT_001_005', 'P4_NB_003_002')),
                                   _F(COEF_IMPO=0.0,
                                      COEF_MULT=(-1.0, 1.0),
                                      DDL=('DY', 'DY'),
                                      GROUP_NO=('P0_NT_001_005', 'P4_NB_003_002')),
                                   _F(COEF_IMPO=0.0,
                                      COEF_MULT=(-1.0, 1.0),
                                      DDL=('DZ', 'DZ'),
                                      GROUP_NO=('P0_NT_001_005', 'P4_NB_003_002')),
                                   _F(COEF_IMPO=0.0,
                                      COEF_MULT=(-1.0, 1.0),
                                      DDL=('DX', 'DX'),
                                      GROUP_NO=('P0_NT_002_004', 'P4_NB_004_001')),
                                   _F(COEF_IMPO=0.0,
                                      COEF_MULT=(-1.0, 1.0),
                                      DDL=('DY', 'DY'),
                                      GROUP_NO=('P0_NT_002_004', 'P4_NB_004_001')),
                                   _F(COEF_IMPO=0.0,
                                      COEF_MULT=(-1.0, 1.0),
                                      DDL=('DZ', 'DZ'),
                                      GROUP_NO=('P0_NT_002_004', 'P4_NB_004_001')),
                                   _F(COEF_IMPO=0.0,
                                      COEF_MULT=(-1.0, 1.0),
                                      DDL=('DX', 'DX'),
                                      GROUP_NO=('P0_NT_002_005', 'P4_NB_004_002')),
                                   _F(COEF_IMPO=0.0,
                                      COEF_MULT=(-1.0, 1.0),
                                      DDL=('DY', 'DY'),
                                      GROUP_NO=('P0_NT_002_005', 'P4_NB_004_002')),
                                   _F(COEF_IMPO=0.0,
                                      COEF_MULT=(-1.0, 1.0),
                                      DDL=('DZ', 'DZ'),
                                      GROUP_NO=('P0_NT_002_005', 'P4_NB_004_002')),
                                   _F(COEF_IMPO=0.0,
                                      COEF_MULT=(-1.0, 1.0),
                                      DDL=('DX', 'DX'),
                                      GROUP_NO=('P1_NT_007_004', 'P9_NB_001_001')),
                                   _F(COEF_IMPO=0.0,
                                      COEF_MULT=(-1.0, 1.0),
                                      DDL=('DY', 'DY'),
                                      GROUP_NO=('P1_NT_007_004', 'P9_NB_001_001')),
                                   _F(COEF_IMPO=0.0,
                                      COEF_MULT=(-1.0, 1.0),
                                      DDL=('DZ', 'DZ'),
                                      GROUP_NO=('P1_NT_007_004', 'P9_NB_001_001')),
                                   _F(COEF_IMPO=0.0,
                                      COEF_MULT=(-1.0, 1.0),
                                      DDL=('DX', 'DX'),
                                      GROUP_NO=('P1_NT_007_005', 'P9_NB_001_002')),
                                   _F(COEF_IMPO=0.0,
                                      COEF_MULT=(-1.0, 1.0),
                                      DDL=('DY', 'DY'),
                                      GROUP_NO=('P1_NT_007_005', 'P9_NB_001_002')),
                                   _F(COEF_IMPO=0.0,
                                      COEF_MULT=(-1.0, 1.0),
                                      DDL=('DZ', 'DZ'),
                                      GROUP_NO=('P1_NT_007_005', 'P9_NB_001_002')),
                                   _F(COEF_IMPO=0.0,
                                      COEF_MULT=(-1.0, 1.0),
                                      DDL=('DX', 'DX'),
                                      GROUP_NO=('P1_NT_008_004', 'P9_NB_002_001')),
                                   _F(COEF_IMPO=0.0,
                                      COEF_MULT=(-1.0, 1.0),
                                      DDL=('DY', 'DY'),
                                      GROUP_NO=('P1_NT_008_004', 'P9_NB_002_001')),
                                   _F(COEF_IMPO=0.0,
                                      COEF_MULT=(-1.0, 1.0),
                                      DDL=('DZ', 'DZ'),
                                      GROUP_NO=('P1_NT_008_004', 'P9_NB_002_001')),
                                   _F(COEF_IMPO=0.0,
                                      COEF_MULT=(-1.0, 1.0),
                                      DDL=('DX', 'DX'),
                                      GROUP_NO=('P1_NT_008_005', 'P9_NB_002_002')),
                                   _F(COEF_IMPO=0.0,
                                      COEF_MULT=(-1.0, 1.0),
                                      DDL=('DY', 'DY'),
                                      GROUP_NO=('P1_NT_008_005', 'P9_NB_002_002')),
                                   _F(COEF_IMPO=0.0,
                                      COEF_MULT=(-1.0, 1.0),
                                      DDL=('DZ', 'DZ'),
                                      GROUP_NO=('P1_NT_008_005', 'P9_NB_002_002')),
                                   _F(COEF_IMPO=0.0,
                                      COEF_MULT=(-1.0, 1.0),
                                      DDL=('DX', 'DX'),
                                      GROUP_NO=('P2_NT_001_004', 'P17_NB_001_001')),
                                   _F(COEF_IMPO=0.0,
                                      COEF_MULT=(-1.0, 1.0),
                                      DDL=('DY', 'DY'),
                                      GROUP_NO=('P2_NT_001_004', 'P17_NB_001_001')),
                                   _F(COEF_IMPO=0.0,
                                      COEF_MULT=(-1.0, 1.0),
                                      DDL=('DZ', 'DZ'),
                                      GROUP_NO=('P2_NT_001_004', 'P17_NB_001_001')),
                                   _F(COEF_IMPO=0.0,
                                      COEF_MULT=(-1.0, 1.0),
                                      DDL=('DX', 'DX'),
                                      GROUP_NO=('P2_NT_001_005', 'P17_NB_001_002')),
                                   _F(COEF_IMPO=0.0,
                                      COEF_MULT=(-1.0, 1.0),
                                      DDL=('DY', 'DY'),
                                      GROUP_NO=('P2_NT_001_005', 'P17_NB_001_002')),
                                   _F(COEF_IMPO=0.0,
                                      COEF_MULT=(-1.0, 1.0),
                                      DDL=('DZ', 'DZ'),
                                      GROUP_NO=('P2_NT_001_005', 'P17_NB_001_002')),
                                   _F(COEF_IMPO=0.0,
                                      COEF_MULT=(-1.0, 1.0),
                                      DDL=('DX', 'DX'),
[...]
                   FORM_TABL='NON',
                   GROUP_NO='P7_NT_004_002',
                   IMPR_COOR='OUI',
                   INST=1.0,
                   NOM_CHAM=('FORC_NODA', 'REAC_NODA'),
                   PRECISION=1e-06,
                   RESULTAT=resnonl),
                _F(CRITERE='RELATIF',
                   FORMAT_R='1PE21.14',
                   FORM_TABL='NON',
                   GROUP_NO='P7_NT_001_001',
                   IMPR_COOR='OUI',
                   INST=1.0,
                   NOM_CHAM=('FORC_NODA', 'REAC_NODA'),
                   PRECISION=1e-06,
                   RESULTAT=resnonl),
                _F(CRITERE='RELATIF',
                   FORMAT_R='1PE21.14',
                   FORM_TABL='NON',
                   GROUP_NO='P7_NT_001_002',
                   IMPR_COOR='OUI',
                   INST=1.0,
                   NOM_CHAM=('FORC_NODA', 'REAC_NODA'),
                   PRECISION=1e-06,
                   RESULTAT=resnonl),
                _F(CRITERE='RELATIF',
                   FORMAT_R='1PE21.14',
                   FORM_TABL='NON',
                   GROUP_NO='P7_NT_002_001',
                   IMPR_COOR='OUI',
                   INST=1.0,
                   NOM_CHAM=('FORC_NODA', 'REAC_NODA'),
                   PRECISION=1e-06,
                   RESULTAT=resnonl),
                _F(CRITERE='RELATIF',
                   FORMAT_R='1PE21.14',
                   FORM_TABL='NON',
                   GROUP_NO='P7_NT_002_002',
                   IMPR_COOR='OUI',
                   INST=1.0,
                   NOM_CHAM=('FORC_NODA', 'REAC_NODA'),
                   PRECISION=1e-06,
                   RESULTAT=resnonl),
                _F(CRITERE='RELATIF',
                   FORMAT_R='1PE21.14',
                   FORM_TABL='NON',
                   GROUP_NO='P8_NT_003_001',
                   IMPR_COOR='OUI',
                   INST=1.0,
                   NOM_CHAM=('FORC_NODA', 'REAC_NODA'),
                   PRECISION=1e-06,
                   RESULTAT=resnonl),
                _F(CRITERE='RELATIF',
                   FORMAT_R='1PE21.14',
                   FORM_TABL='NON',
                   GROUP_NO='P8_NT_003_002',
                   IMPR_COOR='OUI',
                   INST=1.0,
                   NOM_CHAM=('FORC_NODA', 'REAC_NODA'),
                   PRECISION=1e-06,
                   RESULTAT=resnonl),
                _F(CRITERE='RELATIF',
                   FORMAT_R='1PE21.14',
                   FORM_TABL='NON',
                   GROUP_NO='P8_NT_004_001',
                   IMPR_COOR='OUI',
                   INST=1.0,
                   NOM_CHAM=('FORC_NODA', 'REAC_NODA'),
                   PRECISION=1e-06,
                   RESULTAT=resnonl),
                _F(CRITERE='RELATIF',
                   FORMAT_R='1PE21.14',
                   FORM_TABL='NON',
                   GROUP_NO='P8_NT_004_002',
                   IMPR_COOR='OUI',
                   INST=1.0,
                   NOM_CHAM=('FORC_NODA', 'REAC_NODA'),
                   PRECISION=1e-06,
                   RESULTAT=resnonl),
                _F(CRITERE='RELATIF',
                   FORMAT_R='1PE21.14',
                   FORM_TABL='NON',
                   GROUP_NO='P8_NT_001_001',
                   IMPR_COOR='OUI',
                   INST=1.0,
                   NOM_CHAM=('FORC_NODA', 'REAC_NODA'),
                   PRECISION=1e-06,
                   RESULTAT=resnonl),
                _F(CRITERE='RELATIF',
                   FORMAT_R='1PE21.14',
                   FORM_TABL='NON',
                   GROUP_NO='P8_NT_001_002',
                   IMPR_COOR='OUI',
                   INST=1.0,
                   NOM_CHAM=('FORC_NODA', 'REAC_NODA'),
                   PRECISION=1e-06,
                   RESULTAT=resnonl),
                _F(CRITERE='RELATIF',
                   FORMAT_R='1PE21.14',
                   FORM_TABL='NON',
                   GROUP_NO='P8_NT_002_001',
                   IMPR_COOR='OUI',
                   INST=1.0,
                   NOM_CHAM=('FORC_NODA', 'REAC_NODA'),
                   PRECISION=1e-06,
                   RESULTAT=resnonl),
                _F(CRITERE='RELATIF',
                   FORMAT_R='1PE21.14',
                   FORM_TABL='NON',
                   GROUP_NO='P8_NT_002_002',
                   IMPR_COOR='OUI',
                   INST=1.0,
                   NOM_CHAM=('FORC_NODA', 'REAC_NODA'),
                   PRECISION=1e-06,
                   RESULTAT=resnonl),
                _F(CRITERE='RELATIF',
                   FORMAT_R='1PE21.14',
                   FORM_TABL='NON',
                   GROUP_NO='P9_NT_003_001',
                   IMPR_COOR='OUI',
                   INST=1.0,
                   NOM_CHAM=('FORC_NODA', 'REAC_NODA'),
                   PRECISION=1e-06,
                   RESULTAT=resnonl),
                _F(CRITERE='RELATIF',
                   FORMAT_R='1PE21.14',
                   FORM_TABL='NON',
                   GROUP_NO='P9_NT_003_002',
                   IMPR_COOR='OUI',
                   INST=1.0,
                   NOM_CHAM=('FORC_NODA', 'REAC_NODA'),
                   PRECISION=1e-06,
                   RESULTAT=resnonl),
                _F(CRITERE='RELATIF',
                   FORMAT_R='1PE21.14',
                   FORM_TABL='NON',
                   GROUP_NO='P9_NT_004_001',
                   IMPR_COOR='OUI',
                   INST=1.0,
                   NOM_CHAM=('FORC_NODA', 'REAC_NODA'),
                   PRECISION=1e-06,
                   RESULTAT=resnonl),
                _F(CRITERE='RELATIF',
                   FORMAT_R='1PE21.14',
                   FORM_TABL='NON',
                   GROUP_NO='P9_NT_004_002',
                   IMPR_COOR='OUI',
                   INST=1.0,
                   NOM_CHAM=('FORC_NODA', 'REAC_NODA'),
                   PRECISION=1e-06,
                   RESULTAT=resnonl),
                _F(CRITERE='RELATIF',
                   FORMAT_R='1PE21.14',
                   FORM_TABL='NON',
                   GROUP_NO='P17_NT_002_001',
                   IMPR_COOR='OUI',
                   INST=1.0,
                   NOM_CHAM=('FORC_NODA', 'REAC_NODA'),
                   PRECISION=1e-06,
                   RESULTAT=resnonl),
                _F(CRITERE='RELATIF',
                   FORMAT_R='1PE21.14',
                   FORM_TABL='NON',
                   GROUP_NO='P17_NT_002_002',
                   IMPR_COOR='OUI',
                   INST=1.0,
                   NOM_CHAM=('FORC_NODA', 'REAC_NODA'),
                   PRECISION=1e-06,
                   RESULTAT=resnonl),
                _F(CRITERE='RELATIF',
                   FORMAT_R='1PE21.14',
                   FORM_TABL='NON',
                   GROUP_NO='P17_NT_003_001',
                   IMPR_COOR='OUI',
                   INST=1.0,
                   NOM_CHAM=('FORC_NODA', 'REAC_NODA'),
                   PRECISION=1e-06,
                   RESULTAT=resnonl),
                _F(CRITERE='RELATIF',
                   FORMAT_R='1PE21.14',
                   FORM_TABL='NON',
                   GROUP_NO='P17_NT_003_002',
                   IMPR_COOR='OUI',
                   INST=1.0,
                   NOM_CHAM=('FORC_NODA', 'REAC_NODA'),
                   PRECISION=1e-06,
                   RESULTAT=resnonl),
                _F(CRITERE='RELATIF',
                   FORMAT_R='1PE21.14',
                   FORM_TABL='NON',
                   GROUP_NO='P17_NT_004_001',
                   IMPR_COOR='OUI',
                   INST=1.0,
                   NOM_CHAM=('FORC_NODA', 'REAC_NODA'),
                   PRECISION=1e-06,
                   RESULTAT=resnonl),
                _F(CRITERE='RELATIF',
                   FORMAT_R='1PE21.14',
                   FORM_TABL='NON',
                   GROUP_NO='P17_NT_004_002',
                   IMPR_COOR='OUI',
                   INST=1.0,
                   NOM_CHAM=('FORC_NODA', 'REAC_NODA'),
                   PRECISION=1e-06,
                   RESULTAT=resnonl),
                _F(CRITERE='RELATIF',
                   FORMAT_R='1PE21.14',
                   FORM_TABL='NON',
                   GROUP_NO='P17_NT_005_001',
                   IMPR_COOR='OUI',
                   INST=1.0,
                   NOM_CHAM=('FORC_NODA', 'REAC_NODA'),
                   PRECISION=1e-06,
                   RESULTAT=resnonl),
                _F(CRITERE='RELATIF',
                   FORMAT_R='1PE21.14',
                   FORM_TABL='NON',
                   GROUP_NO='P17_NT_005_002',
                   IMPR_COOR='OUI',
                   INST=1.0,
                   NOM_CHAM=('FORC_NODA', 'REAC_NODA'),
                   PRECISION=1e-06,
                   RESULTAT=resnonl),
                _F(CRITERE='RELATIF',
                   FORMAT_R='1PE21.14',
                   FORM_TABL='NON',
                   GROUP_NO='P17_NT_006_001',
                   IMPR_COOR='OUI',
                   INST=1.0,
                   NOM_CHAM=('FORC_NODA', 'REAC_NODA'),
                   PRECISION=1e-06,
                   RESULTAT=resnonl),
                _F(CRITERE='RELATIF',
                   FORMAT_R='1PE21.14',
                   FORM_TABL='NON',
                   GROUP_NO='P17_NT_006_002',
                   IMPR_COOR='OUI',
                   INST=1.0,
                   NOM_CHAM=('FORC_NODA', 'REAC_NODA'),
                   PRECISION=1e-06,
                   RESULTAT=resnonl),
                _F(CRITERE='RELATIF',
                   FORMAT_R='1PE21.14',
                   FORM_TABL='NON',
                   GROUP_NO='P17_NT_007_001',
                   IMPR_COOR='OUI',
                   INST=1.0,
                   NOM_CHAM=('FORC_NODA', 'REAC_NODA'),
                   PRECISION=1e-06,
                   RESULTAT=resnonl),
                _F(CRITERE='RELATIF',
                   FORMAT_R='1PE21.14',
                   FORM_TABL='NON',
                   GROUP_NO='P17_NT_007_002',
                   IMPR_COOR='OUI',
                   INST=1.0,
                   NOM_CHAM=('FORC_NODA', 'REAC_NODA'),
                   PRECISION=1e-06,
                   RESULTAT=resnonl)),
          UNITE=8)

# Mémoire (Mo) :   606.04 /   533.57 /   242.45 /   212.18 (VmPeak / VmSize / Optimum / Minimum)
# Fin commande #0016   user+syst:        0.35s (syst:        0.00s, elaps:        0.35s)
# ----------------------------------------------------------------------------------------------

.. _stg1_txt1615
# ----------------------------------------------------------------------------------------------
# Commande #0017 de fort.1, ligne 1615
FIN(INFO_RESU='NON',
    RETASSAGE='NON')

Saving objects...
gravityScale             <class 'float'>
pi                       <class 'float'>
e                        <class 'float'>
tau                      <class 'float'>
inf                      <class 'float'>
nan                      <class 'float'>
m_Elem                   <class 'libaster.Mesh'>
model                    <class 'libaster.Model'>
mater                    <class 'libaster.Material'>
materfl                  <class 'libaster.MaterialField'>
t_step                   <class 'libaster.ListOfFloats'>
t_stepa                  <class 'libaster.TimeStepper'>
bc_kin                   <class 'libaster.MechanicalLoadReal'>
lias                     <class 'libaster.MechanicalLoadReal'>
gravity                  <class 'libaster.MechanicalLoadReal'>
resnonl                  <class 'libaster.NonLinearResult'>

 ╔════════════════════════════════════════════════════════════════════════════════════════════════╗
 ║ <I> <CATAMESS_89>                                                                              ║
 ║                                                                                                ║
 ║ Liste des alarmes émises lors de l'exécution du calcul.                                        ║
 ║                                                                                                ║
 ║     Les alarmes que vous avez choisies d'ignorer sont précédées de (*).                        ║
 ║     Nombre d'occurrences pour chacune des alarmes :                                            ║
 ║            aucune alarme                                                                       ║
 ╚════════════════════════════════════════════════════════════════════════════════════════════════╝

 ---------------------------------------------------------------------------
 Concepts de la base: G
    Nom       Type                 Taille (Mo)         Nombre      Nombre de
                                                     d'objets       segments
    TOTAL                                47.59            392           1393
  
    00000001   MAILLAGE_SDASTER           0.94             38            897
    00000002   MODELE_SDASTER             0.47              9             14
    00000003   MATER_SDASTER              0.00              6              6
    00000004   CHAM_MATER                 0.00              9             14
    00000005   LISTR8_SDASTER             0.00              6              6
    00000006   LIST_INST                  0.00              9              9
    00000007   CHAR_MECA                  1.37             47             67
    00000008   CHAR_MECA                  0.47             47             67
    00000009   CHAR_MECA                  0.00             32             37
    0000000a   EVOL_NOLI                 14.33            144            170
    &FOZERO                               0.00              2              2
    &&_NUM_C                              0.00              1              1
    &CATA.AC                              0.00              2              4
    &CATA.CL                              0.62              1              3
    &CATA.GD                              0.19              4             11
    &CATA.ME                              0.22              2              4
    &CATA.OP                              0.32              4             19
    &CATA.PH                              0.00              1              1
    &CATA.PR                              0.00              2              4
    &CATA.TE                             28.61             17             42
    &CATA.TH                              0.01              2              4
    &CATA.TM                              0.01              7             11
 ---------------------------------------------------------------------------
Nom de la base                          :  GLOBALE
     Nombre d'enregistrements utilisés       :  182
     Nombre d'enregistrements maximum        :  2684354
     Nombre d'enregistrements par fichier    :  15728
     Longueur d'enregistrement (octets)      :  819200
     Nombre total d'accès en lecture         :  6
     Volume des accès en lecture             :          4.69 Mo.
     Nombre total d'accès en écriture        :  404
     Volume des accès en écriture            :        315.62 Mo.
     Nombre d'identificateurs utilisés       :  582
     Taille maximum du répertoire            :  2000
     Pourcentage d'utilisation du répertoire :  29 %

Nom de la base                          :  VOLATILE
     Nombre d'enregistrements utilisés       :  113
     Nombre d'enregistrements maximum        :  2684354
     Nombre d'enregistrements par fichier    :  15728
     Longueur d'enregistrement (octets)      :  819200
     Nombre total d'accès en lecture         :  0
     Volume des accès en lecture             :          0.00 Mo.
     Nombre total d'accès en écriture        :  297
     Volume des accès en écriture            :        232.03 Mo.
     Nombre d'identificateurs utilisés       :  1094
     Taille maximum du répertoire            :  2000
     Pourcentage d'utilisation du répertoire :  54 %

<I> <FIN> ARRET NORMAL DANS "FIN" PAR APPEL A "JEFINI".
  
 <I> <FIN> MEMOIRE JEVEUX MINIMALE REQUISE POUR L'EXECUTION :                     212.18 Mo
 <I> <FIN> MEMOIRE JEVEUX OPTIMALE REQUISE POUR L'EXECUTION :                     242.45 Mo
 <I> <FIN> MAXIMUM DE MEMOIRE UTILISEE PAR LE PROCESSUS LORS DE L'EXECUTION :     606.04 Mo
  
 <I>       FERMETURE DES BASES EFFECTUEE
  
   STATISTIQUES CONCERNANT L'ALLOCATION DYNAMIQUE :
     TAILLE CUMULEE MAXIMUM            :                  242  Mo.
     TAILLE CUMULEE LIBEREE            :                  166  Mo.
     NOMBRE TOTAL D'ALLOCATIONS        :                94303
     NOMBRE TOTAL DE LIBERATIONS       :                94283
     APPELS AU MECANISME DE LIBERATION :                    0
     TAILLE MEMOIRE CUMULEE RECUPEREE  :                    4  Mo.
     VOLUME DES LECTURES               :                    0  Mo.
     VOLUME DES ECRITURES              :                    5  Mo.
  
   MEMOIRE JEVEUX MINIMALE REQUISE POUR L'EXECUTION :     212.18 Mo
     - IMPOSE DE NOMBREUX ACCES DISQUE
     - RALENTIT LA VITESSE D'EXECUTION
   MEMOIRE JEVEUX OPTIMALE REQUISE POUR L'EXECUTION :     242.45 Mo
     - LIMITE LES ACCES DISQUE
     - AMELIORE LA VITESSE D'EXECUTION
   MAXIMUM DE MEMOIRE UTILISEE PAR LE PROCESSUS     :     606.04 Mo
     - COMPREND LA MEMOIRE CONSOMMEE PAR  JEVEUX, 
       LE SUPERVISEUR PYTHON, LES LIBRAIRIES EXTERNES
  
 <I>       FIN D'EXECUTION LE : ME-17-JANV-2024 13:30:16
Signature of pickled file   : 816cb3fcd019e7763adcf1bd67c530e7333877c5a7daeddeae30977723cb4403
Signature of info file      : 9c4c5c3c589f630baacb8e9765cc6d71783cfcc670df6d72f97a3280defb7ecd
Signature of Jeveux database: e18a9eb73f35e9ef2652720165b0b8535729b7452523e1c4db46f563e93a74a9

 ********************************************************************************
 * COMMAND                  :       USER :     SYSTEM :   USER+SYS :    ELAPSED *
 ********************************************************************************
 * DEBUT                    :       0.03 :       0.13 :       0.16 :       0.17 *
 * LIRE_MAILLAGE            :       0.11 :       0.03 :       0.14 :       0.13 *
 * IMPR_RESU                :       0.09 :       0.06 :       0.15 :       0.15 *
 * AFFE_MODELE              :       0.02 :       0.00 :       0.02 :       0.02 *
 * DEFI_MATERIAU            :       0.00 :       0.00 :       0.00 :       0.01 *
 * AFFE_MATERIAU            :       0.01 :       0.00 :       0.01 :       0.00 *
 * DEFI_LIST_REEL           :       0.00 :       0.00 :       0.00 :       0.00 *
 * DEFI_LIST_INST           :       0.01 :       0.00 :       0.01 :       0.01 *
 * AFFE_CHAR_MECA           :       0.02 :       0.00 :       0.02 :       0.02 *
 * AFFE_CHAR_MECA           :       0.14 :       0.00 :       0.14 :       0.14 *
 * AFFE_CHAR_MECA           :       0.00 :       0.00 :       0.00 :       0.01 *
 * STAT_NON_LINE            :       0.37 :       0.07 :       0.44 :       0.43 *
 * CALC_CHAMP               :       0.15 :       0.01 :       0.16 :       0.16 *
 * IMPR_RESU                :       0.14 :       0.04 :       0.18 :       0.18 *
 * IMPR_RESU                :       0.02 :       0.00 :       0.02 :       0.02 *
 * IMPR_RESU                :       0.35 :       0.00 :       0.35 :       0.35 *
 * FIN                      :       0.07 :       0.06 :       0.13 :       0.13 *
 *  . check syntax          :       0.28 :       0.00 :       0.28 :       0.29 *
 *  . fortran               :       1.20 :       0.39 :       1.59 :       1.61 *
 ********************************************************************************
 * TOTAL_JOB                :       1.54 :       0.40 :       1.94 :       1.94 *
 ********************************************************************************

# Mémoire (Mo) :   606.04 /   316.71 /   242.45 /   212.18 (VmPeak / VmSize / Optimum / Minimum)
# Fin commande #0017   user+syst:        0.07s (syst:        0.06s, elaps:        0.13s)
# ----------------------------------------------------------------------------------------------
EXECUTION_CODE_ASTER_EXIT_10=0
